12

C          0.31220        1.35300       -0.00000
C          1.32780        0.40600       -0.00000
C          1.01560       -0.94690       -0.00000
C         -0.31230       -1.35290       -0.00000
C         -1.32780       -0.40610       -0.00000
C         -1.01550        0.94690       -0.00000
H          0.55360        2.39860       -0.00000
H          2.35410        0.71990        0.00010
H          1.80040       -1.67880       -0.00000
H         -0.55360       -2.39860       -0.00000
H         -2.35410       -0.71980       -0.00000
H         -1.80050        1.67870       -0.00000
